LAMMPS (23 Jun 2022 - Update 3)
echo both

# Define some variables
variable	temperature equal 1720.
variable	temperature2 equal 2500.
variable	tempDamp equal 0.1 # approx 0.1 ps
variable	pressure equal 1.
variable	pressureDamp equal 1.0
variable	seed equal 20000802

# Setup
units		metal
atom_style	full

# Initial configuration
# Cubic diamond lattice
lattice 	diamond 5.4307
Lattice spacing in x,y,z = 5.4307 5.4307 5.4307
region          myreg block 0 3 0 3 0 3
create_box      1 myreg
Created orthogonal box = (0 0 0) to (16.2921 16.2921 16.2921)
create_atoms    1 region myreg
Created 216 atoms
variable 	mass equal 28.0855
mass            1 28.0855

# More setup options
variable	out_freq equal 500
variable	out_freq2 equal 500
neigh_modify    delay 10 every 1
pair_style 	sw
pair_coeff 	* * Si.sw Si
Reading sw potential file Si.sw with DATE: 2007-06-11
timestep	0.002
thermo          500
thermo_style 	custom step temp pe press lx
restart 	500 Restart.lmp Restart2.lmp

# Perform minimization
minimize 1.0e-2 1.0e-3 100 1000
  update every 1 steps, delay 0 steps, check yes
Step          Temp          PotEng         Press            Lx
0   0             -936.70557      139.96968      16.2921
Loop time of 0.0776875 on 12 procs for 1 steps with 216 atoms

Minimization stats:
  Stopping criterion = energy tolerance
  Energy initial, next-to-last, final =
  Force two-norm initial, final = 2.4095498e-13 1.8134305e-13
  Force max component initial, final = 2.1391851e-14 2.136789e-14
  Final line search alpha, max atom move = 1 2.136789e-14
  Iterations, force evaluations = 1 2

reset_timestep 	0

# NVT equilibration

fix             1 all nve
fix             2 all temp/csvr 2500 2500 0.1 20000802

velocity        all create 2500 20000802 dist gaussian
run             50000
Step          Temp          PotEng         Press            Lx
0   2500          -936.70557      17300.512      16.2921
Averages over the last 51 of 101 rows, steps 25000 to 50000:
Temp PotEng Press Lx
2493.97 -777.459 -23769.9 16.2921
Loop time of 4.39262 on 12 procs for 50000 steps with 216 atoms

unfix           1
unfix           2

# NPT equilibration

fix             1 all nph iso 1 1 1
fix             2 all temp/csvr 2500 2500 0.1 20000802

velocity        all create 2500 20000802 dist gaussian
run             50000
Step          Temp          PotEng         Press            Lx
50000   2500          -781.23925     -41111.556      16.2921
Averages over the last 51 of 101 rows, steps 75000 to 100000:
Temp PotEng Press Lx
2508.62 -784.521 1104.82 16.0998
Loop time of 5.30551 on 12 procs for 50000 steps with 216 atoms

unfix           1
unfix           2

# NPT equilibration
# The symmetry of the crystal structure allows us to use an isotropic barostat

fix             1 all nph iso 1 1 1
fix             2 all temp/csvr 2500 1720 0.1 20000802

run             500000
Step          Temp          PotEng         Press            Lx
100000   2352.8966     -787.1806      -17810.457      16.107331
Averages over the last 501 of 1001 rows, steps 350000 to 600000:
Temp PotEng Press Lx
1918.74 -805.724 71.8254 16.0064
Loop time of 53.4929 on 12 procs for 500000 steps with 216 atoms

unfix           1
unfix           2

# Dump trajectories in dump and dcd format
dump            myDump all atom 500 si.lammps-dump-text
dump            myDcdDump all dcd 500 out.dcd

# NPT + enhanced sampling

reset_timestep  0

fix             1 all nph iso 1 1 1
fix             2 all temp/csvr 1720 1720 0.1 20000802
fix		3 all momentum 10000 linear 1 1 1 angular

run             1000000
Step          Temp          PotEng         Press            Lx
0   1702.6437     -815.91129     -9056.3452      16.063789
Averages over the last 1001 of 2001 rows, steps 500000 to 1000000:
Temp PotEng Press Lx
1717.38 -813.826 294.123 15.9805
Loop time of 109.9 on 12 procs for 1000000 steps with 216 atoms

unfix		3
unfix		2
unfix		1

write_data	data.final
System init for write_data ...
